[{"sym":"NXT","name":"NextGen Tech","sector":"Tech","basePrice":150,"volatility":2.5},{"sym":"QNTM","name":"Quantum Computing Solutions","sector":"Tech","basePrice":45.2,"volatility":4},{"sym":"EVM","name":"EcoVehicle Motors","sector":"Automotive","basePrice":210.5,"volatility":3.5},{"sym":"AIG","name":"AI Global Systems","sector":"Tech","basePrice":89.3,"volatility":2.8},{"sym":"SLR","name":"Solaris Energy","sector":"Energy","basePrice":34.1,"volatility":1.5},{"sym":"BIOX","name":"BioX Pharma","sector":"Pharma","basePrice":120.4,"volatility":2.1},{"sym":"CRPT","name":"Cryptographic Holdings","sector":"Finance","basePrice":500,"volatility":5},{"sym":"AERO","name":"AeroDynamics Inc","sector":"Industrial","basePrice":245.8,"volatility":1.2},{"sym":"VRTX","name":"Vertex Meta Platforms","sector":"Media","basePrice":65,"volatility":3.2},{"sym":"AUR","name":"Aura Gold Mining","sector":"Industrial","basePrice":18.5,"volatility":1.8}]