[{"sym":"NXT","name":"NextGen Tech","sector":"Tech","basePrice":150,"volatility":2.5,"category":"STOCK"},{"sym":"QNTM","name":"Quantum Computing Solutions","sector":"Tech","basePrice":45.2,"volatility":4,"category":"STOCK"},{"sym":"EVM","name":"EcoVehicle Motors","sector":"Automotive","basePrice":210.5,"volatility":3.5,"category":"STOCK"},{"sym":"AIG","name":"AI Global Systems","sector":"Tech","basePrice":89.3,"volatility":2.8,"category":"STOCK"},{"sym":"SLR","name":"Solaris Energy","sector":"Energy","basePrice":34.1,"volatility":1.5,"category":"STOCK"},{"sym":"BIOX","name":"BioX Pharma","sector":"Pharma","basePrice":120.4,"volatility":2.1,"category":"STOCK"},{"sym":"CRPT","name":"Cryptographic Holdings","sector":"Finance","basePrice":500,"volatility":5,"category":"STOCK"},{"sym":"AERO","name":"AeroDynamics Inc","sector":"Industrial","basePrice":245.8,"volatility":1.2,"category":"STOCK"},{"sym":"VRTX","name":"Vertex Meta Platforms","sector":"Media","basePrice":65,"volatility":3.2,"category":"STOCK"},{"sym":"AUR","name":"Aura Gold Mining","sector":"Industrial","basePrice":18.5,"volatility":1.8,"category":"STOCK"},{"sym":"BTC","name":"Bitcoin","sector":"Currency","basePrice":80520,"volatility":4.5,"category":"CRYPTO","targetPrice":84546,"targetStartTime":1778609345414,"targetEndTime":1778609465414,"targetStartPrice":80520},{"sym":"ETH","name":"Ethereum","sector":"Currency","basePrice":0,"volatility":5.2,"category":"CRYPTO"},{"sym":"SOL","name":"Solana","sector":"Currency","basePrice":0,"volatility":8.5,"category":"CRYPTO"},{"sym":"BNB","name":"Binance Coin","sector":"Currency","basePrice":0,"volatility":3.5,"category":"CRYPTO"},{"sym":"XRP","name":"Ripple","sector":"Currency","basePrice":0,"volatility":6,"category":"CRYPTO"},{"sym":"ADA","name":"Cardano","sector":"Currency","basePrice":0,"volatility":5.5,"category":"CRYPTO"},{"sym":"DOGE","name":"Dogecoin","sector":"Currency","basePrice":0,"volatility":12,"category":"CRYPTO"},{"sym":"LINK","name":"Chainlink","sector":"Currency","basePrice":0,"volatility":7,"category":"CRYPTO"},{"sym":"AVAX","name":"Avalanche","sector":"Currency","basePrice":0,"volatility":7.5,"category":"CRYPTO"},{"sym":"TON","name":"Toncoin","sector":"Currency","basePrice":0,"volatility":6.5,"category":"CRYPTO"}]